Version 4
SHEET 1 2612 804
WIRE -80 -80 -544 -80
WIRE -544 -32 -544 -80
WIRE -80 80 -80 -80
WIRE -528 112 -736 112
WIRE 448 112 144 112
WIRE 672 112 448 112
WIRE 1040 112 672 112
WIRE 1232 112 1104 112
WIRE 1376 112 1232 112
WIRE 1584 112 1376 112
WIRE 1728 112 1648 112
WIRE 1792 112 1728 112
WIRE 1808 112 1792 112
WIRE -736 144 -736 112
WIRE 1232 144 1232 112
WIRE -528 160 -528 112
WIRE -320 160 -528 160
WIRE 448 176 448 112
WIRE 672 176 672 112
WIRE 1376 176 1376 112
WIRE -320 192 -528 192
WIRE -80 192 -80 144
WIRE -80 192 -128 192
WIRE -528 240 -528 192
WIRE 1232 288 1232 224
WIRE 32 304 0 304
WIRE 448 304 448 240
WIRE 672 304 672 256
WIRE 1376 304 1376 240
WIRE 0 384 0 304
WIRE 32 544 -16 544
WIRE 64 544 32 544
WIRE -16 592 -16 544
FLAG 0 464 0
FLAG 32 304 V+
FLAG -16 672 0
FLAG 32 544 V-
FLAG -528 320 0
FLAG -544 48 0
FLAG 16 32 V+
FLAG 16 192 V-
FLAG -240 112 V+
FLAG -240 272 V-
FLAG -320 224 0
FLAG -736 224 0
FLAG 1376 304 0
FLAG -80 192 Message
FLAG 1728 192 0
FLAG 1232 288 0
FLAG 448 304 0
FLAG 672 304 0
FLAG 1792 112 out
SYMBOL voltage 0 368 R0
WINDOW 123 0 0 Left 0
WINDOW 39 0 0 Left 0
SYMATTR InstName V1
SYMATTR Value 5V
SYMBOL voltage -16 576 R0
WINDOW 123 0 0 Left 0
WINDOW 39 0 0 Left 0
SYMATTR InstName V2
SYMATTR Value -5V
SYMBOL voltage -528 224 R0
SYMATTR InstName Message
SYMATTR Value wavefile=Audio_Files/hello_world.wav
SYMBOL voltage -544 -48 R0
WINDOW 123 0 0 Left 0
WINDOW 39 0 0 Left 0
SYMATTR InstName ModCarrier
SYMATTR Value SINE(0 1 {fc} 0 0 90)
SYMBOL 4_Quadrant_Multiplier 16 112 R0
SYMATTR InstName X1
SYMBOL 3_Input_Summer -240 192 R0
SYMATTR InstName X3
SYMBOL voltage -736 128 R0
WINDOW 123 0 0 Left 0
WINDOW 39 0 0 Left 0
SYMATTR InstName A
SYMATTR Value 2V
SYMBOL diode 1040 128 R270
WINDOW 0 32 32 VTop 2
WINDOW 3 0 32 VBottom 2
SYMATTR InstName D1
SYMBOL cap 1360 176 R0
SYMATTR InstName C1
SYMATTR Value 2.51µ
SYMBOL res 1216 128 R0
SYMATTR InstName R2
SYMATTR Value 1k
SYMBOL cap 1648 96 R90
WINDOW 0 0 32 VBottom 2
WINDOW 3 32 32 VTop 2
SYMATTR InstName C4
SYMATTR Value 46n
SYMBOL res 1712 96 R0
SYMATTR InstName R5
SYMATTR Value 1Meg
SYMBOL cap 432 176 R0
SYMATTR InstName C2
SYMATTR Value {1/(2000*pi)}
SYMBOL ind 656 160 R0
SYMATTR InstName L1
SYMATTR Value {500 / (f0 * (10000 + f0)*pi)}
TEXT -552 448 Left 2 !.tran 0 1.2 0 100n
TEXT 2104 464 Left 2 ;.step dec param C 100p 10u 3
TEXT 680 528 Left 2 !.param f0=fc-5k fc=1000k pi=3.14159265358979
TEXT 744 624 Left 2 !.function sinc(x) { sin(x)/x }
TEXT 760 672 Left 2 !.options numdgt=7 plotwinsize=0
TEXT 1784 -64 Left 2 !.wave "Audio_Files/received.wav" 16 44.1k V(out)
RECTANGLE Normal 1856 256 1536 32 2
RECTANGLE Normal 1472 368 992 32 2
RECTANGLE Normal 240 800 -880 -192 2
