Version 4.1
SHEET 1 880 680
WIRE -176 -736 -544 -736
WIRE -544 -688 -544 -736
WIRE -592 -592 -1056 -592
WIRE -1056 -544 -1056 -592
WIRE -176 -464 -176 -736
WIRE -592 -432 -592 -592
WIRE 256 -432 48 -432
WIRE 496 -432 336 -432
WIRE 640 -432 496 -432
WIRE -176 -400 -368 -400
WIRE -592 -320 -592 -368
WIRE -592 -320 -1040 -320
WIRE 496 -304 496 -368
WIRE -1040 -272 -1040 -320
WIRE -480 -208 -512 -208
WIRE -512 -128 -512 -208
WIRE -480 32 -528 32
WIRE -448 32 -480 32
WIRE -528 80 -528 32
FLAG -512 -48 0
FLAG -480 -208 V+
FLAG -528 160 0
FLAG -480 32 V-
FLAG -1040 -192 0
FLAG -1056 -464 0
FLAG -496 -480 V+
FLAG -496 -320 V-
FLAG -80 -512 V+
FLAG -80 -352 V-
FLAG 496 -304 0
FLAG -544 -608 0
SYMBOL voltage -512 -144 R0
WINDOW 123 0 0 Left 0
WINDOW 39 0 0 Left 0
SYMATTR InstName V1
SYMATTR Value 5V
SYMBOL voltage -528 64 R0
WINDOW 123 0 0 Left 0
WINDOW 39 0 0 Left 0
SYMATTR InstName V2
SYMATTR Value -5V
SYMBOL voltage -1040 -288 R0
WINDOW 123 0 0 Left 0
WINDOW 39 0 0 Left 0
SYMATTR InstName Message1
SYMATTR Value SINE(0 1 10 0 0 0)
SYMBOL voltage -1056 -560 R0
WINDOW 123 0 0 Left 0
WINDOW 39 0 0 Left 0
SYMATTR InstName ModCarrier1
SYMATTR Value SINE(0 1 3000 0 0 90)
SYMBOL res 352 -448 R90
WINDOW 0 0 56 VBottom 2
WINDOW 3 32 56 VTop 2
SYMATTR InstName R1
SYMATTR Value 1k
SYMBOL cap 480 -432 R0
SYMATTR InstName C1
SYMATTR Value 1.54µ
SYMBOL voltage -544 -704 R0
WINDOW 123 0 0 Left 0
WINDOW 39 0 0 Left 0
SYMATTR InstName DemodCarrier1
SYMATTR Value SINE(0 2 3000 0 0 90)
SYMBOL WØUNC-LTSpice-Library\\4_Quadrant_Multiplier -496 -400 R0
SYMATTR InstName X1
SYMBOL WØUNC-LTSpice-Library\\4_Quadrant_Multiplier -80 -432 R0
SYMATTR InstName X2
TEXT -1064 -64 Left 2 !.tran 5
